
**** 11/24/21 13:34:46 ********* PSpice 9.2 (Mar 2000) ******** ID# 1 ********

 ** Profile: "SCHEMATIC1-D"  [ C:\Users\WOLF2022\Desktop\UNI\3_semiterm\MadarElectric\Az\word\9\Pr\diod-schematic1-d.sim ] 


 ****     CIRCUIT DESCRIPTION


******************************************************************************




** Creating circuit file "diod-schematic1-d.sim.cir" 
** WARNING: THIS AUTOMATICALLY GENERATED FILE MAY BE OVERWRITTEN BY SUBSEQUENT SIMULATIONS

*Libraries: 
* Local Libraries :
* From [PSPICE NETLIST] section of C:\Program Files\Orcad\PSpice\PSpice.ini file:
.lib "nom.lib" 

*Analysis directives: 
.TRAN  0 5ms 0 1u 
.PROBE V(*) I(*) W(*) D(*) NOISE(*) 
.INC ".\diod-SCHEMATIC1.net" 



**** INCLUDING diod-SCHEMATIC1.net ****
* source DIOD
V_V1         N00126 0  
+SIN 0 3 1k 0 0 0
R_R1         0 N00164  1k, 10k  
--------------------------------$
ERROR -- Missing value
D_D1         N00126 N00164 D1N4007 
C_C1         0 N00484  1u  
V_V2         N00416 0  
+SIN 0 3 1k 0 0 0
R_R2         0 N00484  1k  
D_D2         N00416 N00484 D1N4007 

**** RESUMING diod-schematic1-d.sim.cir ****
.END
