
**** 11/24/21 13:57:21 ********* PSpice 9.2 (Mar 2000) ******** ID# 1 ********

 ** Profile: "SCHEMATIC1-D"  [ C:\Users\WOLF2022\Desktop\UNI\3_semiterm\MadarElectric\Az\word\9\Pr\diod-schematic1-d.sim ] 


 ****     CIRCUIT DESCRIPTION


******************************************************************************




** Creating circuit file "diod-schematic1-d.sim.cir" 
** WARNING: THIS AUTOMATICALLY GENERATED FILE MAY BE OVERWRITTEN BY SUBSEQUENT SIMULATIONS

*Libraries: 
* Local Libraries :
* From [PSPICE NETLIST] section of C:\Program Files\Orcad\PSpice\PSpice.ini file:
.lib "nom.lib" 

*Analysis directives: 
.TRAN  0 5ms 0 1u 
.PROBE V(*) I(*) W(*) D(*) NOISE(*) 
.INC ".\diod-SCHEMATIC1.net" 



**** INCLUDING diod-SCHEMATIC1.net ****
* source DIOD
V_V1         N00126 0  
+SIN 0 3 1k 0 0 0
R_R1         0 N00164  1k  
D_D1         N00164 N00126 D1N4007 
C_C1         0 N00484  100u  
V_V2         N00416 0  
+SIN 0 3 1k 0 0 0
R_R2         0 N00484  1k  
D_D2         N00416 N00484 D1N4007 

**** RESUMING diod-schematic1-d.sim.cir ****
.END

**** 11/24/21 13:57:21 ********* PSpice 9.2 (Mar 2000) ******** ID# 1 ********

 ** Profile: "SCHEMATIC1-D"  [ C:\Users\WOLF2022\Desktop\UNI\3_semiterm\MadarElectric\Az\word\9\Pr\diod-schematic1-d.sim ] 


 ****     Diode MODEL PARAMETERS


******************************************************************************




               D1N4007         D1N4001         
          IS   14.110000E-09   14.110000E-09 
           N    1.984           1.984        
         IKF   94.81           94.81         
          BV    1.500000E+03   75            
         IBV   10.000000E-06   10.000000E-06 
          RS     .03389          .03389      
          TT    5.700000E-06    5.700000E-06 
         CJO   25.890000E-12   25.890000E-12 
          VJ     .3245           .3245       
           M     .44             .44         


**** 11/24/21 13:57:21 ********* PSpice 9.2 (Mar 2000) ******** ID# 1 ********

 ** Profile: "SCHEMATIC1-D"  [ C:\Users\WOLF2022\Desktop\UNI\3_semiterm\MadarElectric\Az\word\9\Pr\diod-schematic1-d.sim ] 


 ****     INITIAL TRANSIENT SOLUTION       TEMPERATURE =   27.000 DEG C


******************************************************************************



 NODE   VOLTAGE     NODE   VOLTAGE     NODE   VOLTAGE     NODE   VOLTAGE


(N00126)    0.0000 (N00164) 22.74E-21 (N00416)    0.0000 (N00484)-22.77E-21 




    VOLTAGE SOURCE CURRENTS
    NAME         CURRENT

    V_V1        -2.274E-23
    V_V2         2.277E-23

    TOTAL POWER DISSIPATION   0.00E+00  WATTS



          JOB CONCLUDED

          TOTAL JOB TIME            1.17
