
**** 12/01/21 15:58:38 ********* PSpice 9.2 (Mar 2000) ******** ID# 1 ********

 ** Profile: "SCHEMATIC1-Rec"  [ C:\Users\WOLF2022\Desktop\UNI\3_semiterm\MadarElectric\Az\word\10\Pr\rectifire-schematic1-rec.sim ] 


 ****     CIRCUIT DESCRIPTION


******************************************************************************




** Creating circuit file "rectifire-schematic1-rec.sim.cir" 
** WARNING: THIS AUTOMATICALLY GENERATED FILE MAY BE OVERWRITTEN BY SUBSEQUENT SIMULATIONS

*Libraries: 
* Local Libraries :
* From [PSPICE NETLIST] section of C:\Program Files\Orcad\PSpice\PSpice.ini file:
.lib "nom.lib" 

*Analysis directives: 
.TRAN  0 1s 0 1000u 
.PROBE V(*) I(*) W(*) D(*) NOISE(*) 
.INC ".\rectifire-SCHEMATIC1.net" 



**** INCLUDING rectifire-SCHEMATIC1.net ****
* source RECTIFIRE
V_V1         N00156 N00402  
+SIN 0 3 1k 0 0 0
D_D1         0 N00402 D1N4007 
D_D2         N00402 N00331 D1N4007 
C_C1         0 N00331  1u  
D_D3         0 N00156 D1N4007 
D_D4         N00156 N00331 D1N4007 
R_R1         0 N00331  1k  

**** RESUMING rectifire-schematic1-rec.sim.cir ****
.END

**** 12/01/21 15:58:38 ********* PSpice 9.2 (Mar 2000) ******** ID# 1 ********

 ** Profile: "SCHEMATIC1-Rec"  [ C:\Users\WOLF2022\Desktop\UNI\3_semiterm\MadarElectric\Az\word\10\Pr\rectifire-schematic1-rec.sim ] 


 ****     Diode MODEL PARAMETERS


******************************************************************************




               D1N4007         D1N4001         
          IS   14.110000E-09   14.110000E-09 
           N    1.984           1.984        
         IKF   94.81           94.81         
          BV    1.500000E+03   75            
         IBV   10.000000E-06   10.000000E-06 
          RS     .03389          .03389      
          TT    5.700000E-06    5.700000E-06 
         CJO   25.890000E-12   25.890000E-12 
          VJ     .3245           .3245       
           M     .44             .44         


**** 12/01/21 15:58:38 ********* PSpice 9.2 (Mar 2000) ******** ID# 1 ********

 ** Profile: "SCHEMATIC1-Rec"  [ C:\Users\WOLF2022\Desktop\UNI\3_semiterm\MadarElectric\Az\word\10\Pr\rectifire-schematic1-rec.sim ] 


 ****     INITIAL TRANSIENT SOLUTION       TEMPERATURE =   27.000 DEG C


******************************************************************************



 NODE   VOLTAGE     NODE   VOLTAGE     NODE   VOLTAGE     NODE   VOLTAGE


(N00156)-738.8E-21 (N00331)-48.69E-21 (N00402)-738.8E-21 




    VOLTAGE SOURCE CURRENTS
    NAME         CURRENT

    V_V1         0.000E+00

    TOTAL POWER DISSIPATION   0.00E+00  WATTS


          JOB ABORTED

          TOTAL JOB TIME           12.53
