
**** 12/01/21 17:07:04 ********* PSpice 9.2 (Mar 2000) ******** ID# 1 ********

 ** Profile: "SCHEMATIC1-Y"  [ C:\Users\WOLF2022\Desktop\UNI\3_semiterm\MadarElectric\Az\word\10\Pr01\r-SCHEMATIC1-Y.sim ] 


 ****     CIRCUIT DESCRIPTION


******************************************************************************




** Creating circuit file "r-SCHEMATIC1-Y.sim.cir" 
** WARNING: THIS AUTOMATICALLY GENERATED FILE MAY BE OVERWRITTEN BY SUBSEQUENT SIMULATIONS

*Libraries: 
* Local Libraries :
* From [PSPICE NETLIST] section of C:\Program Files\Orcad\PSpice\PSpice.ini file:
.lib "nom.lib" 

*Analysis directives: 
.TRAN  0 2ms 0 10u 
.PROBE V(*) I(*) W(*) D(*) NOISE(*) 
.INC ".\r-SCHEMATIC1.net" 



**** INCLUDING r-SCHEMATIC1.net ****
* source R
V_V1         N00181 0  
+SIN 0 3 1k 0 0 0
D_D1         0 N00181 D1N4007 
D_D2         N00181 N00147 D1N4007 
D_D3         0 0 D1N4007 
D_D4         0 N00147 D1N4007 
R_R1         0 N00147  1k  

**** RESUMING r-SCHEMATIC1-Y.sim.cir ****
.END

**** 12/01/21 17:07:04 ********* PSpice 9.2 (Mar 2000) ******** ID# 1 ********

 ** Profile: "SCHEMATIC1-Y"  [ C:\Users\WOLF2022\Desktop\UNI\3_semiterm\MadarElectric\Az\word\10\Pr01\r-SCHEMATIC1-Y.sim ] 


 ****     Diode MODEL PARAMETERS


******************************************************************************




               D1N4007         D1N4001         
          IS   14.110000E-09   14.110000E-09 
           N    1.984           1.984        
         IKF   94.81           94.81         
          BV    1.500000E+03   75            
         IBV   10.000000E-06   10.000000E-06 
          RS     .03389          .03389      
          TT    5.700000E-06    5.700000E-06 
         CJO   25.890000E-12   25.890000E-12 
          VJ     .3245           .3245       
           M     .44             .44         


**** 12/01/21 17:07:04 ********* PSpice 9.2 (Mar 2000) ******** ID# 1 ********

 ** Profile: "SCHEMATIC1-Y"  [ C:\Users\WOLF2022\Desktop\UNI\3_semiterm\MadarElectric\Az\word\10\Pr01\r-SCHEMATIC1-Y.sim ] 


 ****     INITIAL TRANSIENT SOLUTION       TEMPERATURE =   27.000 DEG C


******************************************************************************



 NODE   VOLTAGE     NODE   VOLTAGE     NODE   VOLTAGE     NODE   VOLTAGE


(N00147)-270.2E-24 (N00181)    0.0000 




    VOLTAGE SOURCE CURRENTS
    NAME         CURRENT

    V_V1         1.643E-24

    TOTAL POWER DISSIPATION   0.00E+00  WATTS



          JOB CONCLUDED

          TOTAL JOB TIME            2.88
