
**** 12/22/21 07:36:28 ********* PSpice 9.2 (Mar 2000) ******** ID# 1 ********

 ** Profile: "SCHEMATIC1-RUN02"  [ C:\Users\WOLF2022\Desktop\UNI\3_semiterm\MadarElectric\Az\word\13\psPise\commonemi-SCHEMATIC1-RUN0


 ****     CIRCUIT DESCRIPTION


******************************************************************************




** Creating circuit file "commonemi-SCHEMATIC1-RUN02.sim.cir" 
** WARNING: THIS AUTOMATICALLY GENERATED FILE MAY BE OVERWRITTEN BY SUBSEQUENT SIMULATIONS

*Libraries: 
* Local Libraries :
* From [PSPICE NETLIST] section of C:\Program Files\Orcad\PSpice\PSpice.ini file:
.lib "nom.lib" 

*Analysis directives: 
.TRAN  0 2ms 0 1u 
.STEP LIN PARAM RsV 500 2.5k 500 
.PROBE V(*) I(*) W(*) D(*) NOISE(*) 
.INC ".\commonemi-SCHEMATIC1.net" 



**** INCLUDING commonemi-SCHEMATIC1.net ****
* source COMMONEMI
Q_Q1         COLLECTOR BASE EMITER BC107A 
R_Rs         IN VI  10k  
V_VCC         N00409 0 10
V_Vs         IN 0  
+SIN 0 10m 0.3k 0 0 0
R_Rl         0 OUT  99999k  
R_Rc         COLLECTOR N00409  1k  
R_Re         0 EMITER  220  
R_R2         0 BASE  10k  
R_R1         BASE N00409  47k  
C_C1         VI BASE  100u  
C_C2         COLLECTOR OUT  100u  
C_ByPass         0 EMITER  100u  

**** RESUMING commonemi-SCHEMATIC1-RUN02.sim.cir ****
.END


ERROR -- Undefined parameter: RsV